GEN
  PyMOL2.3          3D                             0

 30 32  0  0  0  0  0  0  0  0999 V2000
  -15.6234  -58.6322  -33.3818 C   0  0  0  0  0  0  0  0  0  0  0  0
  -15.6484  -58.9746  -34.7385 C   0  0  0  0  0  0  0  0  0  0  0  0
  -16.8727  -59.2372  -35.3355 O   0  0  0  0  0  0  0  0  0  0  0  0
  -14.5290  -59.0997  -35.5163 C   0  0  0  0  0  0  0  0  0  0  0  0
  -13.2891  -58.8301  -34.9308 C   0  0  0  0  0  0  0  0  0  0  0  0
  -12.1114  -58.9506  -35.6020 O   0  0  0  0  0  0  0  0  0  0  0  0
  -13.2054  -58.4923  -33.5676 C   0  0  0  0  0  0  0  0  0  0  0  0
  -11.8920  -58.2849  -32.9117 C   0  0  0  0  0  0  0  0  0  0  0  0
  -10.8030  -58.3483  -33.4619 O   0  0  0  0  0  0  0  0  0  0  0  0
  -11.9341  -57.9263  -31.4731 C   0  0  0  0  0  0  0  0  0  0  0  0
  -13.1361  -57.8197  -30.8496 C   0  0  0  0  0  0  0  0  0  0  0  0
  -14.3224  -58.0550  -31.4846 O   0  0  0  0  0  0  0  0  0  0  0  0
  -14.3537  -58.3936  -32.8124 C   0  0  0  0  0  0  0  0  0  0  0  0
  -10.7721  -57.6095  -30.5647 C   0  0  0  0  0  0  0  0  0  0  0  0
   -9.6476  -56.9173  -31.0096 C   0  0  0  0  0  0  0  0  0  0  0  0
   -8.5941  -56.6163  -30.1625 C   0  0  0  0  0  0  0  0  0  0  0  0
   -8.6538  -56.9983  -28.8392 C   0  0  0  0  0  0  0  0  0  0  0  0
   -7.6030  -56.6711  -27.9998 O   0  0  0  0  0  0  0  0  0  0  0  0
   -9.7503  -57.7113  -28.3495 C   0  0  0  0  0  0  0  0  0  0  0  0
  -10.8267  -58.0168  -29.2195 C   0  0  0  0  0  0  0  0  0  0  0  0
  -16.5533  -58.5546  -32.7932 H   0  0  0  0  0  0  0  0  0  0  0  0
  -16.8900  -59.4696  -36.2564 H   0  0  0  0  0  0  0  0  0  0  0  0
  -14.6229  -59.4052  -36.5711 H   0  0  0  0  0  0  0  0  0  0  0  0
  -11.2690  -58.7675  -35.2038 H   0  0  0  0  0  0  0  0  0  0  0  0
  -13.1498  -57.5299  -29.7848 H   0  0  0  0  0  0  0  0  0  0  0  0
   -9.5906  -56.5981  -32.0639 H   0  0  0  0  0  0  0  0  0  0  0  0
   -7.7117  -56.0746  -30.5402 H   0  0  0  0  0  0  0  0  0  0  0  0
   -7.6450  -56.9347  -27.0878 H   0  0  0  0  0  0  0  0  0  0  0  0
   -9.7664  -58.0278  -27.2925 H   0  0  0  0  0  0  0  0  0  0  0  0
  -11.7070  -58.5709  -28.8494 H   0  0  0  0  0  0  0  0  0  0  0  0
  1  2  2  0  0  0  0
  1 13  1  0  0  0  0
  1 21  1  0  0  0  0
  2  3  1  0  0  0  0
  2  4  1  0  0  0  0
  3 22  1  0  0  0  0
  4  5  2  0  0  0  0
  4 23  1  0  0  0  0
  5  6  1  0  0  0  0
  5  7  1  0  0  0  0
  6 24  1  0  0  0  0
  7  8  1  0  0  0  0
  7 13  2  0  0  0  0
  8  9  2  0  0  0  0
  8 10  1  0  0  0  0
 10 11  2  0  0  0  0
 10 14  1  0  0  0  0
 11 12  1  0  0  0  0
 11 25  1  0  0  0  0
 12 13  1  0  0  0  0
 14 15  2  0  0  0  0
 14 20  1  0  0  0  0
 15 16  1  0  0  0  0
 15 26  1  0  0  0  0
 16 17  2  0  0  0  0
 16 27  1  0  0  0  0
 17 18  1  0  0  0  0
 17 19  1  0  0  0  0
 18 28  1  0  0  0  0
 19 20  2  0  0  0  0
 19 29  1  0  0  0  0
 20 30  1  0  0  0  0
M  END
$$$$
