GEN
  PyMOL2.3          3D                             0

 30 32  0  0  0  0  0  0  0  0999 V2000
   -4.0439  -28.9605  -44.7925 C   0  0  0  0  0  0  0  0  0  0  0  0
   -3.6813  -29.4274  -46.0609 C   0  0  0  0  0  0  0  0  0  0  0  0
   -4.4615  -29.0676  -47.1500 O   0  0  0  0  0  0  0  0  0  0  0  0
   -2.6136  -30.2510  -46.2961 C   0  0  0  0  0  0  0  0  0  0  0  0
   -1.8134  -30.6153  -45.2098 C   0  0  0  0  0  0  0  0  0  0  0  0
   -0.7456  -31.4513  -45.3241 O   0  0  0  0  0  0  0  0  0  0  0  0
   -2.1389  -30.1831  -43.9111 C   0  0  0  0  0  0  0  0  0  0  0  0
   -1.3490  -30.6284  -42.7380 C   0  0  0  0  0  0  0  0  0  0  0  0
   -0.3649  -31.3515  -42.7746 O   0  0  0  0  0  0  0  0  0  0  0  0
   -1.7857  -30.0998  -41.4228 C   0  0  0  0  0  0  0  0  0  0  0  0
   -2.8587  -29.2691  -41.3633 C   0  0  0  0  0  0  0  0  0  0  0  0
   -3.5805  -28.9129  -42.4670 O   0  0  0  0  0  0  0  0  0  0  0  0
   -3.2325  -29.3690  -43.7117 C   0  0  0  0  0  0  0  0  0  0  0  0
   -1.1514  -30.3358  -40.0746 C   0  0  0  0  0  0  0  0  0  0  0  0
    0.2285  -30.4375  -39.9094 C   0  0  0  0  0  0  0  0  0  0  0  0
    0.8014  -30.6367  -38.6644 C   0  0  0  0  0  0  0  0  0  0  0  0
   -0.0057  -30.7282  -37.5504 C   0  0  0  0  0  0  0  0  0  0  0  0
    0.5828  -30.9054  -36.3101 O   0  0  0  0  0  0  0  0  0  0  0  0
   -1.3954  -30.6524  -37.6659 C   0  0  0  0  0  0  0  0  0  0  0  0
   -1.9777  -30.4478  -38.9419 C   0  0  0  0  0  0  0  0  0  0  0  0
   -4.9213  -28.3064  -44.6519 H   0  0  0  0  0  0  0  0  0  0  0  0
   -4.2156  -29.3844  -48.0111 H   0  0  0  0  0  0  0  0  0  0  0  0
   -2.4071  -30.6063  -47.3188 H   0  0  0  0  0  0  0  0  0  0  0  0
   -0.2022  -31.6988  -44.5857 H   0  0  0  0  0  0  0  0  0  0  0  0
   -3.1559  -28.8672  -40.3795 H   0  0  0  0  0  0  0  0  0  0  0  0
    0.8864  -30.3575  -40.7911 H   0  0  0  0  0  0  0  0  0  0  0  0
    1.8953  -30.7219  -38.5607 H   0  0  0  0  0  0  0  0  0  0  0  0
    0.0258  -30.9681  -35.5427 H   0  0  0  0  0  0  0  0  0  0  0  0
   -2.0234  -30.7520  -36.7638 H   0  0  0  0  0  0  0  0  0  0  0  0
   -3.0737  -30.3752  -39.0530 H   0  0  0  0  0  0  0  0  0  0  0  0
  1  2  2  0  0  0  0
  1 13  1  0  0  0  0
  1 21  1  0  0  0  0
  2  3  1  0  0  0  0
  2  4  1  0  0  0  0
  3 22  1  0  0  0  0
  4  5  2  0  0  0  0
  4 23  1  0  0  0  0
  5  6  1  0  0  0  0
  5  7  1  0  0  0  0
  6 24  1  0  0  0  0
  7  8  1  0  0  0  0
  7 13  2  0  0  0  0
  8  9  2  0  0  0  0
  8 10  1  0  0  0  0
 10 11  2  0  0  0  0
 10 14  1  0  0  0  0
 11 12  1  0  0  0  0
 11 25  1  0  0  0  0
 12 13  1  0  0  0  0
 14 15  2  0  0  0  0
 14 20  1  0  0  0  0
 15 16  1  0  0  0  0
 15 26  1  0  0  0  0
 16 17  2  0  0  0  0
 16 27  1  0  0  0  0
 17 18  1  0  0  0  0
 17 19  1  0  0  0  0
 18 28  1  0  0  0  0
 19 20  2  0  0  0  0
 19 29  1  0  0  0  0
 20 30  1  0  0  0  0
M  END
$$$$
